EPRI_Ckt7_DER_Project/electricdss-code-r4133-trunk-Distrib-EPRITestCircuits-ckt7/ckt7_Curr_Elem.Txt

CIRCUIT ELEMENT CURRENTS

(Currents into element from indicated bus)

Power Delivery Elements

  Bus         Phase    Magnitude, A     Angle      (Real)   +j  (Imag)

ELEMENT = "Vsource.SOURCE"
SOURCEBUS         1           412.85 /_  153.4 =    -368.99 +j    185.17
SOURCEBUS         2           412.48 /_   33.4 =     344.44 +j    226.93
SOURCEBUS         3           412.83 /_  -86.6 =     24.551 +j    -412.1
------------
SOURCEBUS         0           412.85 /_  -26.6 =     368.99 +j   -185.17
SOURCEBUS         0           412.48 /_ -146.6 =    -344.44 +j   -226.93
SOURCEBUS         0           412.83 /_   93.4 =    -24.551 +j     412.1

ELEMENT = "Transformer.SUB1"
SOURCEBUS         1           137.62 /_  -26.6 =        123 +j   -61.723
SOURCEBUS         2           137.49 /_ -146.6 =    -114.81 +j   -75.644
SOURCEBUS         3           137.61 /_   93.4 =    -8.1836 +j    137.37
SOURCEBUS         0                0 /_    0.0 =          0 +j         0
------------
CKT7              1             1271 /_  123.3 =    -698.75 +j    1061.7
CKT7              2           1268.2 /_    3.4 =     1265.9 +j    75.824
CKT7              3           1266.9 /_ -116.6 =    -568.03 +j   -1132.4
CKT7              0           5.1854 /_  -80.4 =    0.86915 +j   -5.1121

ELEMENT = "Transformer.SUB2"
SOURCEBUS         1           137.62 /_  -26.6 =        123 +j   -61.723
SOURCEBUS         2           137.49 /_ -146.6 =    -114.81 +j   -75.644
SOURCEBUS         3           137.61 /_   93.4 =    -8.1836 +j    137.37
SOURCEBUS         0                0 /_    0.0 =          0 +j         0
------------
CKT7              1             1271 /_  123.3 =    -698.75 +j    1061.7
CKT7              2           1268.2 /_    3.4 =     1265.9 +j    75.824
CKT7              3           1266.9 /_ -116.6 =    -568.03 +j   -1132.4
CKT7              0           5.1854 /_  -80.4 =    0.86915 +j   -5.1121

ELEMENT = "Transformer.SUB3"
SOURCEBUS         1           137.62 /_  -26.6 =        123 +j   -61.723
SOURCEBUS         2           137.49 /_ -146.6 =    -114.81 +j   -75.644
SOURCEBUS         3           137.61 /_   93.4 =    -8.1836 +j    137.37
SOURCEBUS         0                0 /_    0.0 =          0 +j         0
------------
CKT7              1             1271 /_  123.3 =    -698.75 +j    1061.7
CKT7              2           1268.2 /_    3.4 =     1265.9 +j    75.824
CKT7              3           1266.9 /_ -116.6 =    -568.03 +j   -1132.4
CKT7              0           5.1854 /_  -80.4 =    0.86915 +j   -5.1121

ELEMENT = "Line.326"
CKT7              1                0 /_    0.0 =          0 +j         0
CKT7              2                0 /_    0.0 =          0 +j         0
CKT7              3                0 /_    0.0 =          0 +j         0
------------
318405            1       7.885E-008 /_   50.7 =  4.9901E-008 +j 6.1051E-008
318405            2      7.8861E-008 /_   -9.3 =  7.7835E-008 +j -1.2682E-008
318405            3                0 /_    0.0 =          0 +j         0

ELEMENT = "Line.333"
CKT7              1           249.47 /_  -45.0 =     176.29 +j   -176.51
CKT7              2           219.46 /_ -162.1 =    -208.86 +j   -67.369
CKT7              3           247.34 /_   75.1 =     63.547 +j    239.04
------------
318412            1           249.47 /_  135.0 =    -176.29 +j    176.51
318412            2           219.46 /_   17.9 =     208.86 +j    67.369
318412            3           247.34 /_ -104.9 =    -63.547 +j   -239.04

ELEMENT = "Line.335"
CKT7              1                0 /_    0.0 =          0 +j         0
CKT7              2                0 /_    0.0 =          0 +j         0
CKT7              3                0 /_    0.0 =          0 +j         0
------------
318414            1       7.885E-008 /_   50.7 =  4.9901E-008 +j 6.1051E-008
318414            2      7.8861E-008 /_   -9.3 =  7.7835E-008 +j -1.2682E-008
318414            3                0 /_    0.0 =          0 +j         0

ELEMENT = "Line.150394"
157345            1           2.5633 /_  115.1 =    -1.0889 +j    2.3206
157345            2            2.564 /_   -4.9 =     2.5547 +j  -0.21793
157345            3           2.5631 /_ -124.9 =    -1.4658 +j   -2.1026
------------
157346            1           2.5633 /_  -64.9 =     1.0889 +j   -2.3206
157346            2            2.564 /_  175.1 =    -2.5547 +j   0.21793
157346            3           2.5631 /_   55.1 =     1.4658 +j    2.1026

ELEMENT = "Line.157109"
165442            1           269.71 /_  -44.3 =     193.18 +j   -188.21
165442            2           239.78 /_ -161.5 =    -227.37 +j   -76.164
165442            3           267.47 /_   75.9 =     65.157 +j    259.42
------------
298160            1           269.71 /_  135.7 =    -193.18 +j    188.21
298160            2           239.78 /_   18.5 =     227.37 +j    76.164
298160            3           267.47 /_ -104.1 =    -65.157 +j   -259.42

ELEMENT = "Line.157115"
165448            1           269.71 /_  -44.3 =     193.18 +j   -188.21
165448            2           238.02 /_ -161.3 =    -225.45 +j   -76.317
165448            3           267.47 /_   75.9 =     65.157 +j    259.42
------------
275354            1           269.71 /_  135.7 =    -193.18 +j    188.21
275354            2           238.02 /_   18.7 =     225.45 +j    76.317
275354            3           267.47 /_ -104.1 =    -65.157 +j   -259.42

ELEMENT = "Line.157116"
165449            1         0.046256 /_ -110.1 =  -0.015893 +j  -0.04344
165449            2      7.5059E-008 /_  -69.8 =  2.5917E-008 +j -7.0442E-008
165449            3      7.4886E-008 /_  170.1 =  -7.3778E-008 +j 1.2835E-008
------------
165450            1         0.046256 /_   69.9 =   0.015893 +j   0.04344
165450            2       3.638E-012 /_  -90.0 =          0 +j -3.638E-012
165450            3      2.1828E-011 /_    0.0 =  2.1828E-011 +j         0

ELEMENT = "Line.157118"
165453            1           21.234 /_  -65.3 =     8.8572 +j   -19.298
165453            2           21.395 /_  174.7 =    -21.302 +j    1.9923
165453            3           21.481 /_   54.6 =     12.429 +j     17.52
------------
165454            1           21.234 /_  114.7 =    -8.8572 +j    19.298
165454            2           21.395 /_   -5.3 =     21.302 +j   -1.9923
165454            3           21.481 /_ -125.4 =    -12.429 +j    -17.52

ELEMENT = "Line.157119"
165449            1           269.69 /_  -44.2 =      193.2 +j   -188.16
165449            2           236.83 /_ -161.2 =    -224.15 +j   -76.432
165449            3           267.47 /_   75.9 =     65.157 +j    259.42
------------
165451            1           269.69 /_  135.8 =     -193.2 +j    188.16
165451            2           236.83 /_   18.8 =     224.15 +j    76.432
165451            3           267.47 /_ -104.1 =    -65.157 +j   -259.42

ELEMENT = "Line.157120"
165454            1           20.004 /_  -65.3 =     8.3457 +j    -18.18
165454            2           20.092 /_  174.7 =    -20.004 +j    1.8733
165454            3           20.128 /_   54.6 =     11.651 +j    16.413
------------
238402            1           20.004 /_  114.7 =    -8.3457 +j     18.18
238402            2           20.092 /_   -5.3 =     20.004 +j   -1.8733
238402            3           20.128 /_ -125.4 =    -11.651 +j   -16.413

ELEMENT = "Line.157121"
165455            1            5.116 /_  114.9 =    -2.1518 +j    4.6415
165455            2           5.1206 /_   -5.2 =     5.0998 +j  -0.46092
165455            3           5.1154 /_ -125.2 =    -2.9479 +j   -4.1805
------------
165456            1            5.116 /_  -65.1 =     2.1518 +j   -4.6415
165456            2           5.1206 /_  174.8 =    -5.0998 +j   0.46092
165456            3           5.1154 /_   54.8 =     2.9479 +j    4.1805

ELEMENT = "Line.157122"
165452            1           13.658 /_  -65.4 =     5.6821 +j    -12.42
165452            2           13.669 /_  174.6 =    -13.607 +j    1.2937
165452            3            13.66 /_   54.5 =      7.925 +j    11.126
------------
283563            1           13.658 /_  114.6 =    -5.6821 +j     12.42
283563            2           13.669 /_   -5.4 =     13.607 +j   -1.2937
283563            3            13.66 /_ -125.5 =     -7.925 +j   -11.126

ELEMENT = "Line.157123"
165455            1            5.116 /_  -65.1 =     2.1518 +j   -4.6415
165455            2           5.1206 /_  174.8 =    -5.0998 +j   0.46092
165455            3           5.1154 /_   54.8 =     2.9479 +j    4.1805
------------
165457            1            5.116 /_  114.9 =    -2.1518 +j    4.6415
165457            2           5.1206 /_   -5.2 =     5.0998 +j  -0.46092
165457            3           5.1154 /_ -125.2 =    -2.9479 +j   -4.1805

ELEMENT = "Line.157124"
165458            1           16.246 /_  114.7 =    -6.7909 +j    14.759
165458            2           16.261 /_   -5.3 =     16.191 +j   -1.5112
165458            3           16.244 /_ -125.4 =    -9.3999 +j   -13.248
------------
165459            1           16.246 /_  -65.3 =     6.7909 +j   -14.759
165459            2           16.261 /_  174.7 =    -16.191 +j    1.5112
165459            3           16.244 /_   54.6 =     9.3999 +j    13.248

ELEMENT = "Line.157126"
165458            1           16.246 /_  -65.3 =     6.7909 +j   -14.759
165458            2           16.261 /_  174.7 =    -16.191 +j    1.5112
165458            3           16.244 /_   54.6 =     9.3999 +j    13.248
------------
165460            1           16.246 /_  114.7 =    -6.7909 +j    14.759
165460            2           16.261 /_   -5.3 =     16.191 +j   -1.5112
165460            3           16.244 /_ -125.4 =    -9.3999 +j   -13.248

ELEMENT = "Line.157127"
165460            1           13.685 /_  -65.3 =      5.719 +j   -12.433
165460            2           13.698 /_  174.7 =    -13.639 +j    1.2755
165460            3           13.683 /_   54.6 =     7.9197 +j    11.158
------------
165461            1           13.685 /_  114.7 =     -5.719 +j    12.433
165461            2           13.698 /_   -5.3 =     13.639 +j   -1.2755
165461            3           13.683 /_ -125.4 =    -7.9197 +j   -11.158

ELEMENT = "Line.157128"
165461            1           13.644 /_  -65.1 =      5.751 +j   -12.373
165461            2           13.657 /_  174.9 =    -13.602 +j    1.2175
165461            3           13.641 /_   54.9 =     7.8513 +j    11.155
------------
165463            1           13.644 /_  114.9 =     -5.751 +j    12.373
165463            2           13.657 /_   -5.1 =     13.602 +j   -1.2175
165463            3           13.641 /_ -125.1 =    -7.8513 +j   -11.155

ELEMENT = "Line.157129"
165463            1           8.5248 /_  -64.9 =     3.6153 +j   -7.7202
165463            2           8.5334 /_  175.0 =    -8.5014 +j    0.7387
165463            3           8.5215 /_   55.0 =     4.8861 +j    6.9815
------------
165462            1           8.5248 /_  115.1 =    -3.6153 +j    7.7202
165462            2           8.5334 /_   -5.0 =     8.5014 +j   -0.7387
165462            3           8.5215 /_ -125.0 =    -4.8861 +j   -6.9815

ELEMENT = "Line.157130"
165465            1           5.1192 /_  114.7 =    -2.1357 +j    4.6525
165465            2           5.1233 /_   -5.4 =     5.1009 +j  -0.47882
165465            3           5.1197 /_ -125.4 =    -2.9652 +j   -4.1736
------------
165463            1           5.1192 /_  -65.3 =     2.1357 +j   -4.6525
165463            2           5.1233 /_  174.6 =    -5.1009 +j   0.47882
165463            3           5.1197 /_   54.6 =     2.9652 +j    4.1736

ELEMENT = "Line.157131"
165461            1         0.068336 /_ -117.9 =  -0.032013 +j -0.060374
165461            2         0.068394 /_  122.1 =  -0.036339 +j  0.057941
165461            3         0.068396 /_    2.0 =   0.068352 +j 0.0024332
------------
165466            1         0.068336 /_   62.1 =   0.032013 +j  0.060374
165466            2         0.068394 /_  -57.9 =   0.036339 +j -0.057941
165466            3         0.068396 /_ -178.0 =  -0.068352 +j -0.0024332

ELEMENT = "Line.157132"
165451            1            235.1 /_  -41.0 =     177.55 +j   -154.11
165451            2           199.63 /_ -156.3 =    -182.78 +j   -80.261
165451            3           232.72 /_   79.3 =     43.328 +j    228.65
------------
165467            1            235.1 /_  139.0 =    -177.55 +j    154.11
165467            2           199.63 /_   23.7 =     182.78 +j    80.261
165467            3           232.72 /_ -100.7 =    -43.328 +j   -228.65

ELEMENT = "Line.157133"
165467            1           233.98 /_  -40.8 =     177.04 +j   -152.99
165467            2           199.63 /_ -156.3 =    -182.78 +j   -80.261
165467            3           232.72 /_   79.3 =     43.328 +j    228.65
------------
165468            1           233.98 /_  139.2 =    -177.04 +j    152.99
165468            2           199.63 /_   23.7 =     182.78 +j    80.261
165468            3           232.72 /_ -100.7 =    -43.328 +j   -228.65

ELEMENT = "Line.157136"
165475            1           12.772 /_  -64.6 =     5.4817 +j   -11.535
165475            2           12.788 /_  175.3 =    -12.745 +j    1.0419
165475            3           12.762 /_   55.3 =     7.2637 +j    10.493
------------
165476            1           12.772 /_  115.4 =    -5.4817 +j    11.535
165476            2           12.788 /_   -4.7 =     12.745 +j   -1.0419
165476            3           12.762 /_ -124.7 =    -7.2637 +j   -10.493

ELEMENT = "Line.157137"
165477            1           12.772 /_  115.4 =    -5.4817 +j    11.535
165477            2           12.788 /_   -4.7 =     12.745 +j   -1.0419
165477            3           12.762 /_ -124.7 =    -7.2637 +j   -10.493
------------
165476            1           12.772 /_  -64.6 =     5.4817 +j   -11.535
165476            2           12.788 /_  175.3 =    -12.745 +j    1.0419
165476            3           12.762 /_   55.3 =     7.2637 +j    10.493

ELEMENT = "Line.157138"
165475            1           12.772 /_  115.4 =    -5.4817 +j    11.535
165475            2           12.788 /_   -4.7 =     12.745 +j   -1.0419
165475            3           12.762 /_ -124.7 =    -7.2637 +j   -10.493
------------
273626            1           12.772 /_  -64.6 =     5.4817 +j   -11.535
273626            2           12.788 /_  175.3 =    -12.745 +j    1.0419
273626            3           12.762 /_   55.3 =     7.2637 +j    10.493

ELEMENT = "Line.157142"
165468            1           233.98 /_  -40.8 =     177.04 +j   -152.99
165468            2           199.62 /_ -156.3 =    -182.77 +j   -80.278
165468            3           232.72 /_   79.3 =     43.328 +j    228.65
------------
165469            1           233.98 /_  139.2 =    -177.04 +j    152.99
165469            2           199.62 /_   23.7 =     182.77 +j    80.278
165469            3           232.72 /_ -100.7 =    -43.328 +j   -228.65

ELEMENT = "Line.157143"
165469            1           218.95 /_  -39.1 =     169.97 +j   -138.01
165469            2           184.71 /_ -153.7 =    -165.65 +j   -81.722
165469            3           217.59 /_   81.1 =     33.781 +j    214.95
------------
165480            1           218.95 /_  140.9 =    -169.97 +j    138.01
165480            2           184.71 /_   26.3 =     165.65 +j    81.722
165480            3           217.59 /_  -98.9 =    -33.781 +j   -214.95

ELEMENT = "Line.157144"
165478            1           214.37 /_  -38.5 =     167.84 +j   -133.36
165478            2           180.36 /_ -152.9 =    -160.52 +j    -82.24
165478            3           213.02 /_   81.7 =     30.811 +j    210.78
------------
165479            1           214.37 /_  141.5 =    -167.84 +j    133.36
165479            2           180.36 /_   27.1 =     160.52 +j     82.24
165479            3           213.02 /_  -98.3 =    -30.811 +j   -210.78

ELEMENT = "Line.157145"
165480            1           218.95 /_  -39.1 =     169.97 +j   -138.01
165480            2            184.7 /_ -153.7 =    -165.62 +j   -81.757
165480            3           217.59 /_   81.1 =     33.781 +j    214.95
------------
165478            1           218.95 /_  140.9 =    -169.97 +j    138.01
165478            2            184.7 /_   26.3 =     165.62 +j    81.757
165478            3           217.59 /_  -98.9 =    -33.781 +j   -214.95

ELEMENT = "Line.157147"
165484            1           2.5612 /_  114.5 =    -1.0635 +j      2.33
165484            2           2.5635 /_   -5.5 =     2.5518 +j  -0.24475
165484            3           2.5619 /_ -125.5 =    -1.4883 +j   -2.0852
------------
165483            1           2.5612 /_  -65.5 =     1.0635 +j     -2.33
165483            2           2.5635 /_  174.5 =    -2.5518 +j   0.24475
165483            3           2.5619 /_   54.5 =     1.4883 +j    2.0852

ELEMENT = "Line.157148"
165483            1           5.1211 /_  114.6 =    -2.1334 +j    4.6556
165483            2           5.1259 /_   -5.4 =     5.1032 +j  -0.48247
165483            3           5.1219 /_ -125.4 =    -2.9697 +j   -4.1731
------------
261839            1           5.1211 /_  -65.4 =     2.1334 +j   -4.6556
261839            2           5.1259 /_  174.6 =    -5.1032 +j   0.48247
261839            3           5.1219 /_   54.6 =     2.9697 +j    4.1731

ELEMENT = "Line.157149"
261838            1           5.1211 /_  114.6 =    -2.1334 +j    4.6556
261838            2           5.1259 /_   -5.4 =     5.1032 +j  -0.48247
261838            3           5.1219 /_ -125.4 =    -2.9697 +j   -4.1731
------------
165478            1           5.1211 /_  -65.4 =     2.1334 +j   -4.6556
165478            2           5.1259 /_  174.6 =    -5.1032 +j   0.48247
165478            3           5.1219 /_   54.6 =     2.9697 +j    4.1731

ELEMENT = "Line.157150"
165479            1           2.0628 /_  -65.3 =    0.86358 +j   -1.8733
165479            2          0.26478 /_  173.7 =   -0.26317 +j  0.029195
165479            3          0.27463 /_   53.9 =    0.16185 +j   0.22188
------------
165486            1           2.0628 /_  114.7 =   -0.86358 +j    1.8733
165486            2          0.26478 /_   -6.3 =    0.26317 +j -0.029195
165486            3          0.27463 /_ -126.1 =   -0.16185 +j  -0.22188

ELEMENT = "Line.157151"
165486            1           1.8127 /_  -65.1 =    0.76428 +j   -1.6437
165486            2      2.6911E-008 /_  -70.1 =  9.1768E-009 +j -2.5299E-008
165486            3       2.681E-008 /_  169.9 =  -2.6397E-008 +j 4.6857E-009
------------
165485            1           1.8127 /_  114.9 =   -0.76428 +j    1.6437
165485            2      2.9611E-011 /_   47.5 =  2.0009E-011 +j 2.1828E-011
165485            3      4.1159E-011 /_  135.0 =  -2.9104E-011 +j 2.9104E-011

ELEMENT = "Line.157152"
165479            1           212.53 /_  -38.2 =     166.97 +j   -131.48
165479            2           180.14 /_ -152.8 =    -160.25 +j   -82.269
165479            3           212.78 /_   81.7 =     30.649 +j    210.56
------------
165487            1           212.53 /_  141.8 =    -166.97 +j    131.48
165487            2           180.14 /_   27.2 =     160.25 +j    82.269
165487            3           212.78 /_  -98.3 =    -30.649 +j   -210.56

ELEMENT = "Line.157153"
165488            1           12.231 /_  114.6 =    -5.0965 +j    11.119
------------
165489            1           12.231 /_  -65.4 =     5.0965 +j   -11.119

ELEMENT = "Line.157155"
165488            1           12.231 /_  -65.4 =     5.0965 +j   -11.119
------------
165491            1           12.231 /_  114.6 =    -5.0965 +j    11.119

ELEMENT = "Line.157156"
165491            1           7.3329 /_  -65.3 =     3.0681 +j   -6.6602
------------
165490            1           7.3329 /_  114.7 =    -3.0681 +j    6.6602

ELEMENT = "Line.157157"
165490            1           4.8886 /_  -65.3 =     2.0456 +j     -4.44
------------
165494            1           4.8886 /_  114.7 =    -2.0456 +j      4.44

ELEMENT = "Line.157158"
165490            1           2.4444 /_  -65.3 =     1.0225 +j   -2.2202
------------
165492            1           2.4444 /_  114.7 =    -1.0225 +j    2.2202

ELEMENT = "Line.157159"
165494            1           2.4442 /_  -65.3 =     1.0231 +j   -2.2198
------------
165493            1           2.4442 /_  114.7 =    -1.0231 +j    2.2198

ELEMENT = "Line.157160"
165487            1           201.72 /_  -36.6 =     161.88 +j   -120.37
165487            2           180.14 /_ -152.8 =    -160.25 +j   -82.269
165487            3           212.78 /_   81.7 =     30.649 +j    210.56
------------
283952            1           201.72 /_  143.4 =    -161.88 +j    120.37
283952            2           180.14 /_   27.2 =     160.25 +j    82.269
283952            3           212.78 /_  -98.3 =    -30.649 +j   -210.56

ELEMENT = "Line.157163"
165500            1           2.5596 /_  -65.4 =      1.065 +j   -2.3275
165500            2           2.5625 /_  174.6 =    -2.5509 +j   0.24311
165500            3           2.5598 /_   54.5 =     1.4859 +j    2.0844
------------
165501            1           2.5596 /_  114.6 =     -1.065 +j    2.3275
165501            2           2.5625 /_   -5.4 =     2.5509 +j  -0.24311
165501            3           2.5598 /_ -125.5 =    -1.4859 +j   -2.0844

ELEMENT = "Line.157165"
165495            1           2.5596 /_  -65.4 =      1.065 +j   -2.3275
165495            2           2.5625 /_  174.6 =    -2.5509 +j   0.24311
165495            3           2.5598 /_   54.5 =     1.4859 +j    2.0844
------------
165500            1           2.5596 /_  114.6 =     -1.065 +j    2.3275
165500            2           2.5625 /_   -5.4 =     2.5509 +j  -0.24311
165500            3           2.5598 /_ -125.5 =    -1.4859 +j   -2.0844

ELEMENT = "Line.157167"
165501            1           2.5596 /_  -65.4 =      1.065 +j   -2.3275
165501            2           2.5625 /_  174.6 =    -2.5509 +j   0.24311
165501            3           2.5598 /_   54.5 =     1.4859 +j    2.0844
------------
165503            1           2.5596 /_  114.6 =     -1.065 +j    2.3275
165503            2           2.5625 /_   -5.4 =     2.5509 +j  -0.24311
165503            3           2.5598 /_ -125.5 =    -1.4859 +j   -2.0844

ELEMENT = "Line.157168"
165495            1           192.06 /_  -35.1 =     157.21 +j   -110.31
165495            2           170.87 /_ -150.8 =     -149.2 +j   -83.269
165495            3           202.96 /_   83.1 =     24.263 +j     201.5
------------
165504            1           192.06 /_  144.9 =    -157.21 +j    110.31
165504            2           170.87 /_   29.2 =      149.2 +j    83.269
165504            3           202.96 /_  -96.9 =    -24.263 +j    -201.5

ELEMENT = "Line.174945"
181883            1      2.7324E-006 /_   49.1 =  1.7903E-006 +j 2.0642E-006
181883            2      2.7443E-006 /_  -70.6 =  9.1244E-007 +j -2.5882E-006
181883            3       2.723E-006 /_  169.2 =  -2.6752E-006 +j 5.0809E-007
------------
158676            1      3.6451E-012 /_   -3.6 =  3.638E-012 +j -2.2737E-013
158676            2      2.9118E-012 /_  -51.3 =  1.819E-012 +j -2.2737E-012
158676            3       1.819E-012 /_   90.0 =          0 +j 1.819E-012

ELEMENT = "Line.174947"
181889            1           5.1066 /_  -65.4 =     2.1255 +j   -4.6432
181889            2           5.1136 /_  174.5 =    -5.0901 +j   0.48902
181889            3           5.1035 /_   54.5 =     2.9646 +j    4.1542
------------
181890            1           5.1066 /_  114.6 =    -2.1255 +j    4.6432
181890            2           5.1136 /_   -5.5 =     5.0901 +j  -0.48902
181890            3           5.1035 /_ -125.5 =    -2.9646 +j   -4.1542

ELEMENT = "Line.174948"
181891            1           18.334 /_  -65.7 =     7.5352 +j   -16.714
181891            2           19.499 /_  174.3 =    -19.402 +j    1.9412
181891            3           16.133 /_   54.7 =     9.3114 +j    13.174
------------
181892            1           18.334 /_  114.3 =    -7.5352 +j    16.714
181892            2           19.499 /_   -5.7 =     19.402 +j   -1.9412
181892            3           16.133 /_ -125.3 =    -9.3114 +j   -13.174

ELEMENT = "Line.174950"
181884            1           28.587 /_  -65.7 =     11.755 +j   -26.058
181884            2           31.684 /_  174.3 =    -31.528 +j    3.1453
181884            3            26.38 /_   54.5 =     15.307 +j    21.484
------------
181886            1           28.587 /_  114.3 =    -11.755 +j    26.058
181886            2           31.684 /_   -5.7 =     31.528 +j   -3.1453
181886            3            26.38 /_ -125.5 =    -15.307 +j   -21.484

ELEMENT = "Line.174951"
181886            1           5.1066 /_  -65.4 =     2.1255 +j   -4.6432
181886            2           5.1136 /_  174.5 =    -5.0901 +j   0.48902
181886            3           5.1035 /_   54.5 =     2.9646 +j    4.1542
------------
181889            1           5.1066 /_  114.6 =    -2.1255 +j    4.6432
181889            2           5.1136 /_   -5.5 =     5.0901 +j  -0.48902
181889            3           5.1035 /_ -125.5 =    -2.9646 +j   -4.1542

ELEMENT = "Line.174952"
181886            1           23.481 /_  -65.8 =     9.6291 +j   -21.415
181886            2           26.571 /_  174.3 =    -26.438 +j    2.6563
181886            3           21.276 /_   54.5 =     12.343 +j     17.33
------------
181888            1           23.481 /_  114.2 =    -9.6291 +j    21.415
181888            2           26.571 /_   -5.7 =     26.438 +j   -2.6563
181888            3           21.276 /_ -125.5 =    -12.343 +j    -17.33

ELEMENT = "Line.174953"
181888            1           23.481 /_  -65.8 =     9.6291 +j   -21.415
181888            2           26.571 /_  174.3 =    -26.438 +j    2.6563
181888            3           21.276 /_   54.5 =     12.343 +j     17.33
------------
181885            1           23.481 /_  114.2 =    -9.6291 +j    21.415
181885            2           26.571 /_   -5.7 =     26.438 +j   -2.6563
181885            3           21.276 /_ -125.5 =    -12.343 +j    -17.33

ELEMENT = "Line.174954"
181885            1           23.481 /_  -65.8 =     9.6291 +j   -21.415
181885            2           24.653 /_  174.2 =    -24.527 +j    2.4868
181885            3           21.276 /_   54.5 =     12.343 +j     17.33
------------
181887            1           23.481 /_  114.2 =    -9.6291 +j    21.415
181887            2           24.653 /_   -5.8 =     24.527 +j   -2.4868
181887            3           21.276 /_ -125.5 =    -12.343 +j    -17.33

ELEMENT = "Line.174955"
181887            1           18.334 /_  -65.7 =     7.5352 +j   -16.714
181887            2           19.499 /_  174.3 =    -19.402 +j    1.9412
181887            3           16.133 /_   54.7 =     9.3114 +j    13.174
------------
181891            1           18.334 /_  114.3 =    -7.5352 +j    16.714
181891            2           19.499 /_   -5.7 =     19.402 +j   -1.9412
181891            3           16.133 /_ -125.3 =    -9.3114 +j   -13.174

ELEMENT = "Line.174956"
181890            1           5.1066 /_  -65.4 =     2.1255 +j   -4.6432
181890            2           5.1136 /_  174.5 =    -5.0901 +j   0.48902
181890            3           5.1035 /_   54.5 =     2.9646 +j    4.1542
------------
181893            1           5.1066 /_  114.6 =    -2.1255 +j    4.6432
181893            2           5.1136 /_   -5.5 =     5.0901 +j  -0.48902
181893            3           5.1035 /_ -125.5 =    -2.9646 +j   -4.1542

ELEMENT = "Line.174957"
181887            1           5.1469 /_  -66.0 =      2.094 +j   -4.7017
181887            2            5.154 /_  173.9 =    -5.1251 +j   0.54557
181887            3            5.144 /_   53.9 =     3.0311 +j    4.1561
------------
181894            1           5.1469 /_  114.0 =     -2.094 +j    4.7017
181894            2            5.154 /_   -6.1 =     5.1251 +j  -0.54557
181894            3            5.144 /_ -126.1 =    -3.0311 +j   -4.1561

ELEMENT = "Line.174958"
181895            1         0.067517 /_ -118.7 =  -0.032422 +j -0.059223
181895            2         0.067658 /_  121.3 =  -0.035146 +j  0.057813
181895            3         0.067583 /_    1.2 =   0.067568 +j 0.0014098
------------
181896            1         0.067517 /_   61.3 =   0.032422 +j  0.059223
181896            2         0.067658 /_  -58.7 =   0.035146 +j -0.057813
181896            3         0.067583 /_ -178.8 =  -0.067568 +j -0.0014098

ELEMENT = "Line.174959"
181894            1         0.067517 /_ -118.7 =  -0.032422 +j -0.059223
181894            2         0.067658 /_  121.3 =  -0.035146 +j  0.057813
181894            3         0.067583 /_    1.2 =   0.067568 +j 0.0014098
------------
181895            1         0.067517 /_   61.3 =   0.032422 +j  0.059223
181895            2         0.067658 /_  -58.7 =   0.035146 +j -0.057813
181895            3         0.067583 /_ -178.8 =  -0.067568 +j -0.0014098

ELEMENT = "Line.174960"
181896            1         0.067517 /_ -118.7 =  -0.032422 +j -0.059223
181896            2         0.067658 /_  121.3 =  -0.035146 +j  0.057813
181896            3         0.067583 /_    1.2 =   0.067568 +j 0.0014098
------------
181897            1         0.067517 /_   61.3 =   0.032422 +j  0.059223
181897            2         0.067658 /_  -58.7 =   0.035146 +j -0.057813
181897            3         0.067583 /_ -178.8 =  -0.067568 +j -0.0014098

ELEMENT = "Line.174961"
181892            1           18.334 /_  -65.7 =     7.5352 +j   -16.714
------------
181898            1           18.334 /_  114.3 =    -7.5352 +j    16.714

ELEMENT = "Line.174962"
181898            1            14.66 /_  -65.7 =     6.0347 +j    -13.36
------------
181899            1            14.66 /_  114.3 =    -6.0347 +j     13.36

ELEMENT = "Line.174963"
181899            1            12.22 /_  -65.7 =     5.0239 +j   -11.139
------------
181900            1            12.22 /_  114.3 =    -5.0239 +j    11.139

ELEMENT = "Line.174964"
181900            1           7.3295 /_  -65.7 =     3.0193 +j   -6.6788
------------
181901            1           7.3295 /_  114.3 =    -3.0193 +j    6.6788

ELEMENT = "Line.174965"
181901            1           4.8896 /_  -65.8 =     2.0068 +j   -4.4588
------------
181902            1           4.8896 /_  114.2 =    -2.0068 +j    4.4588

ELEMENT = "Line.174966"
181892            3           16.133 /_   54.7 =     9.3114 +j    13.174
------------
181908            3           16.133 /_ -125.3 =    -9.3114 +j   -13.174

ELEMENT = "Line.174967"
181908            3           4.0398 /_   54.6 =     2.3413 +j    3.2922
------------
181903            3           4.0398 /_ -125.4 =    -2.3413 +j   -3.2922

ELEMENT = "Line.174968"
181908            3             4.04 /_   54.6 =     2.3421 +j    3.2918
------------
181904            3             4.04 /_ -125.4 =    -2.3421 +j   -3.2918

ELEMENT = "Line.174969"
181908            3           8.0528 /_   54.9 =      4.628 +j    6.5901
------------
181905            3           8.0528 /_ -125.1 =     -4.628 +j   -6.5901

ELEMENT = "Line.174970"
181905            3           5.3685 /_   54.9 =     3.0851 +j    4.3935
------------
181909            3           5.3685 /_ -125.1 =    -3.0851 +j   -4.3935

ELEMENT = "Line.174971"
181909            3           2.6843 /_   54.9 =     1.5426 +j    2.1968
------------
181907            3           2.6843 /_ -125.1 =    -1.5426 +j   -2.1968

ELEMENT = "Line.174972"
181909            3           2.6843 /_   54.9 =     1.5426 +j    2.1968
------------
181906            3           2.6843 /_ -125.1 =    -1.5426 +j   -2.1968

ELEMENT = "Line.174973"
181892            2           19.499 /_  174.3 =    -19.402 +j    1.9412
------------
181910            2           19.499 /_   -5.7 =     19.402 +j   -1.9412

ELEMENT = "Line.174974"
181910            2           15.606 /_  174.3 =    -15.528 +j    1.5601
------------
181911            2           15.606 /_   -5.7 =     15.528 +j   -1.5601

ELEMENT = "Line.174975"
181911            2           11.713 /_  174.2 =    -11.653 +j    1.1758
------------
181916            2           11.713 /_   -5.8 =     11.653 +j   -1.1758

ELEMENT = "Line.174976"
181916            2           2.5864 /_  174.7 =    -2.5754 +j   0.23769
------------
181915            2           2.5864 /_   -5.3 =     2.5754 +j  -0.23769

ELEMENT = "Line.174977"
181916            2           9.1263 /_  174.1 =     -9.078 +j   0.93807
------------
181912            2           9.1263 /_   -5.9 =      9.078 +j  -0.93807

ELEMENT = "Line.174978"
181912            2           3.9441 /_  173.6 =    -3.9198 +j   0.43753
------------
181913            2           3.9441 /_   -6.4 =     3.9198 +j  -0.43753

ELEMENT = "Line.174979"
181913            2         0.070742 /_  129.7 =   -0.04521 +j  0.054411
------------
181914            2         0.070742 /_  -50.3 =    0.04521 +j -0.054411

ELEMENT = "Line.174980"
181883            1           28.587 /_  114.3 =    -11.755 +j    26.058
181883            2           31.684 /_   -5.7 =     31.528 +j   -3.1453
181883            3           26.422 /_ -125.6 =    -15.364 +j   -21.495
------------
181917            1           28.587 /_  -65.7 =     11.755 +j   -26.058
181917            2           31.684 /_  174.3 =    -31.528 +j    3.1453
181917            3           26.422 /_   54.4 =     15.364 +j    21.495

ELEMENT = "Line.174981"
181917            1      5.0525E-008 /_   48.7 =  3.3353E-008 +j 3.7951E-008
181917            2      5.0891E-008 /_  -70.8 =  1.6764E-008 +j -4.805E-008
181917            3      5.0465E-008 /_  169.3 =  -4.9593E-008 +j 9.3423E-009
------------
181920            1         2.4E-010 /_  104.0 =  -5.8208E-011 +j 2.3283E-010
181920            2      1.4552E-010 /_   36.9 =  1.1642E-010 +j 8.7311E-011
181920            3      2.9104E-011 /_   90.0 =          0 +j 2.9104E-011

ELEMENT = "Line.174982"
181917            1           28.587 /_  114.3 =    -11.755 +j    26.058
181917            2           31.684 /_   -5.7 =     31.528 +j   -3.1453
181917            3           26.422 /_ -125.6 =    -15.364 +j   -21.495
------------
181918            1           28.587 /_  -65.7 =     11.755 +j   -26.058
181918            2           31.684 /_  174.3 =    -31.528 +j    3.1453
181918            3           26.422 /_   54.4 =     15.364 +j    21.495

ELEMENT = "Line.174983"
181918            1           104.13 /_  142.8 =    -82.968 +j     62.93
181918            2           109.14 /_   21.3 =     101.66 +j    39.695
181918            3           103.13 /_  -97.0 =    -12.645 +j   -102.35
------------
181919            1           104.13 /_  -37.2 =     82.968 +j    -62.93
181919            2           109.14 /_ -158.7 =    -101.66 +j   -39.695
181919            3           103.13 /_   83.0 =     12.645 +j    102.35

ELEMENT = "Line.174984"
181919            1      2.2964E-007 /_   49.1 =  1.5031E-007 +j 1.7361E-007
181919            2      2.3066E-007 /_  -70.5 =  7.6878E-008 +j -2.1747E-007
181919            3       2.288E-007 /_  169.3 =  -2.248E-007 +j 4.2586E-008
------------
152566            1      3.9182E-011 /_  -68.2 =  1.4552E-011 +j -3.638E-011
152566            2       1.819E-011 /_   36.9 =  1.4552E-011 +j 1.0914E-011
152566            3      6.8641E-011 /_  -32.0 =  5.8208E-011 +j -3.638E-011

ELEMENT = "Line.174987"
181918            1           80.193 /_  -27.4 =     71.213 +j   -36.872
181918            2           82.183 /_ -148.6 =    -70.134 +j   -42.841
181918            3           80.899 /_   91.9 =    -2.7184 +j    80.853
------------
181925            1           80.193 /_  152.6 =    -71.213 +j    36.872
181925            2           82.183 /_   31.4 =     70.134 +j    42.841
181925            3           80.899 /_  -88.1 =     2.7184 +j   -80.853

ELEMENT = "Line.174988"
181925            1           48.368 /_   16.9 =     46.289 +j    14.028
181925            2           48.772 /_ -106.0 =    -13.456 +j   -46.879
181925            3           48.373 /_  135.4 =    -34.458 +j     33.95
------------
181926            1           48.368 /_ -163.1 =    -46.289 +j   -14.028
181926            2           48.772 /_   74.0 =     13.456 +j    46.879
181926            3           48.373 /_  -44.6 =     34.458 +j    -33.95

ELEMENT = "Line.174989"
181926            1           7.5891 /_  -65.9 =     3.0984 +j   -6.9277
181926            2            5.158 /_  173.7 =    -5.1268 +j   0.56602
181926            3            5.149 /_   53.7 =     3.0505 +j    4.1481
------------
181927            1           7.5891 /_  114.1 =    -3.0984 +j    6.9277
181927            2            5.158 /_   -6.3 =     5.1268 +j  -0.56602
181927            3            5.149 /_ -126.3 =    -3.0505 +j   -4.1481

ELEMENT = "Line.174990"
181925            1           56.674 /_  -63.9 =     24.924 +j     -50.9
181925            2           56.822 /_  175.9 =    -56.678 +j    4.0383
181925            3           56.633 /_   55.9 =      31.74 +j    46.904
------------
181928            1           56.674 /_  116.1 =    -24.924 +j      50.9
181928            2           56.822 /_   -4.1 =     56.678 +j   -4.0383
181928            3           56.633 /_ -124.1 =     -31.74 +j   -46.904

ELEMENT = "Line.174991"
181919            1        7.47E-008 /_   49.1 =  4.8953E-008 +j 5.6425E-008
181919            2      7.4861E-008 /_  -70.7 =  2.4796E-008 +j -7.0635E-008
181919            3      7.4513E-008 /_  169.3 =  -7.3225E-008 +j 1.3795E-008
------------
181924            1      9.8964E-011 /_  -54.0 =  5.8208E-011 +j -8.0036E-011
181924            2      3.2539E-010 /_  -26.6 =  2.9104E-010 +j -1.4552E-010
181924            3      1.3016E-010 /_   26.6 =  1.1642E-010 +j 5.8208E-011

ELEMENT = "Line.174994"
181933            3           20.167 /_   54.8 =     11.628 +j    16.477
------------
181934            3           20.167 /_ -125.2 =    -11.628 +j   -16.477

ELEMENT = "Line.174995"
255317            1           104.13 /_  142.8 =    -82.968 +j     62.93
255317            2           109.14 /_   21.3 =     101.66 +j    39.695
255317            3           103.13 /_  -97.0 =    -12.645 +j   -102.35
------------
181929            1           104.13 /_  -37.2 =     82.968 +j    -62.93
181929            2           109.14 /_ -158.7 =    -101.66 +j   -39.695
181929            3           103.13 /_   83.0 =     12.645 +j    102.35

ELEMENT = "Line.174998"
181929            1           119.47 /_  139.1 =    -90.269 +j    78.263
181929            2           124.65 /_   17.9 =     118.62 +j    38.304
181929            3           118.41 /_ -100.9 =    -22.301 +j   -116.29
------------
181936            1           119.47 /_  -40.9 =     90.269 +j   -78.263
181936            2           124.65 /_ -162.1 =    -118.62 +j   -38.304
181936            3           118.41 /_   79.1 =     22.301 +j    116.29

ELEMENT = "Line.174999"
181936            1           119.92 /_  139.0 =     -90.47 +j    78.715
181936            2           124.65 /_   17.9 =     118.62 +j    38.304
181936            3           118.41 /_ -100.9 =    -22.301 +j   -116.29
------------
181932            1           119.92 /_  -41.0 =      90.47 +j   -78.715
181932            2           124.65 /_ -162.1 =    -118.62 +j   -38.304
181932            3           118.41 /_   79.1 =     22.301 +j    116.29

ELEMENT = "Line.175000"
181932            3           20.167 /_   54.8 =     11.628 +j    16.477
------------
181933            3           20.167 /_ -125.2 =    -11.628 +j   -16.477

ELEMENT = "Line.175001"
181939            1         0.067591 /_   61.3 =   0.032435 +j    0.0593
181939            2          0.06774 /_  -58.7 =   0.035206 +j -0.057872
181939            3         0.067657 /_ -178.8 =  -0.067642 +j -0.0014286
------------
181940            1         0.067591 /_ -118.7 =  -0.032435 +j   -0.0593
181940            2          0.06774 /_  121.3 =  -0.035206 +j  0.057872
181940            3         0.067657 /_    1.2 =   0.067642 +j 0.0014286

ELEMENT = "Line.175002"
181927            1           7.5891 /_  -65.9 =     3.0984 +j   -6.9277
181927            2            5.158 /_  173.7 =    -5.1268 +j   0.56602
181927            3            5.149 /_   53.7 =     3.0505 +j    4.1481
------------
181937            1           7.5891 /_  114.1 =    -3.0984 +j    6.9277
181937            2            5.158 /_   -6.3 =     5.1268 +j  -0.56602
181937            3            5.149 /_ -126.3 =    -3.0505 +j   -4.1481

ELEMENT = "Line.175003"
181937            1           5.1511 /_  -66.2 =     2.0763 +j   -4.7141
181937            2            5.158 /_  173.7 =    -5.1268 +j   0.56602
181937            3            5.149 /_   53.7 =     3.0505 +j    4.1481
------------
181938            1           5.1511 /_  113.8 =    -2.0763 +j    4.7141
181938            2            5.158 /_   -6.3 =     5.1268 +j  -0.56602
181938            3            5.149 /_ -126.3 =    -3.0505 +j   -4.1481

ELEMENT = "Line.175004"
181938            1         0.067591 /_ -118.7 =  -0.032435 +j   -0.0593
181938            2         0.067739 /_  121.3 =  -0.035206 +j  0.057872
181938            3         0.067657 /_    1.2 =   0.067642 +j 0.0014286
------------
181940            1         0.067591 /_   61.3 =   0.032435 +j    0.0593
181940            2          0.06774 /_  -58.7 =   0.035206 +j -0.057872
181940            3         0.067657 /_ -178.8 =  -0.067642 +j -0.0014286

ELEMENT = "Line.175005"
181939            1         0.067591 /_ -118.7 =  -0.032435 +j   -0.0593
181939            2          0.06774 /_  121.3 =  -0.035206 +j  0.057872
181939            3         0.067657 /_    1.2 =   0.067642 +j 0.0014286
------------
181941            1         0.067591 /_   61.3 =   0.032435 +j    0.0593
181941            2          0.06774 /_  -58.7 =   0.035206 +j -0.057872
181941            3         0.067657 /_ -178.8 =  -0.067642 +j -0.0014286

ELEMENT = "Line.175006"
181943            3            14.81 /_   54.7 =     8.5545 +j    12.089
------------
181944            3            14.81 /_ -125.3 =    -8.5545 +j   -12.089

ELEMENT = "Line.175007"
181932            1              130 /_  136.9 =    -94.991 +j    88.751
181932            2           124.65 /_   17.9 =     118.62 +j    38.304
181932            3           137.03 /_ -104.3 =    -33.929 +j   -132.77
------------
181945            1              130 /_  -43.1 =     94.991 +j   -88.751
181945            2           124.65 /_ -162.1 =    -118.62 +j   -38.304
181945            3           137.03 /_   75.7 =     33.929 +j    132.77

ELEMENT = "Line.175008"
181945            1           138.45 /_  159.4 =    -129.62 +j    48.657
181945            2           134.11 /_   41.3 =      100.8 +j    88.446
181945            3           143.63 /_  -82.8 =     17.947 +j    -142.5
------------
181942            1           138.45 /_  -20.6 =     129.62 +j   -48.657
181942            2           134.11 /_ -138.7 =     -100.8 +j   -88.446
181942            3           143.63 /_   97.2 =    -17.947 +j     142.5

ELEMENT = "Line.175009"
181942            3            14.81 /_   54.7 =     8.5545 +j    12.089
------------
181943            3            14.81 /_ -125.3 =    -8.5545 +j   -12.089

ELEMENT = "Line.175010"
236964            1           14.683 /_  -65.7 =     6.0312 +j   -13.387
------------
181946            1           14.683 /_  114.3 =    -6.0312 +j    13.387

ELEMENT = "Line.175011"
181946            1           2.4409 /_  -65.4 =     1.0142 +j   -2.2203
------------
181953            1           2.4409 /_  114.6 =    -1.0142 +j    2.2203

ELEMENT = "Line.175013"
181946            1           12.242 /_  -65.8 =      5.017 +j   -11.167
------------
181947            1           12.242 /_  114.2 =     -5.017 +j    11.167

ELEMENT = "Line.175014"
181947            1           3.6752 /_  -65.9 =     1.5036 +j   -3.3536
------------
181950            1           3.6752 /_  114.1 =    -1.5036 +j    3.3536

ELEMENT = "Line.175015"
181947            1           8.5668 /_  -65.8 =     3.5134 +j   -7.8132
------------
181948            1           8.5668 /_  114.2 =    -3.5134 +j    7.8132

ELEMENT = "Line.175016"
181948            1           3.6752 /_  -65.8 =     1.5036 +j   -3.3535
------------
181951            1           3.6752 /_  114.2 =    -1.5036 +j    3.3535

ELEMENT = "Line.175017"
181948            1           4.8916 /_  -65.7 =     2.0098 +j   -4.4597
------------
181952            1           4.8916 /_  114.3 =    -2.0098 +j    4.4597

ELEMENT = "Line.175018"
181954            1            2.441 /_  114.5 =    -1.0127 +j     2.221
------------
181949            1            2.441 /_  -65.5 =     1.0127 +j    -2.221

ELEMENT = "Line.175019"
181949            1           3.6753 /_  -65.9 =     1.5012 +j   -3.3547
------------
181955            1           3.6753 /_  114.1 =    -1.5012 +j    3.3547

ELEMENT = "Line.175020"
181949            1           6.1162 /_  114.3 =    -2.5139 +j    5.5757
------------
181956            1           6.1162 /_  -65.7 =     2.5139 +j   -5.5757

ELEMENT = "Line.175021"
181956            1           11.008 /_  114.2 =    -4.5209 +j    10.037
------------
236966            1           11.008 /_  -65.8 =     4.5209 +j   -10.037

ELEMENT = "Line.175022"
181944            3            14.81 /_   54.7 =     8.5545 +j    12.089
------------
181957            3            14.81 /_ -125.3 =    -8.5545 +j   -12.089

ELEMENT = "Line.175023"
181934            3           20.167 /_   54.8 =     11.628 +j    16.477
------------
181958            3           20.167 /_ -125.2 =    -11.628 +j   -16.477

ELEMENT = "Line.175024"
181958            3           14.788 /_   54.8 =     8.5217 +j    12.086
------------
181967            3           14.788 /_ -125.2 =    -8.5217 +j   -12.086

ELEMENT = "Line.175025"
181967            3           10.748 /_   54.9 =     6.1835 +j    8.7908
------------
181966            3           10.748 /_ -125.1 =    -6.1835 +j   -8.7908

ELEMENT = "Line.175026"
181966            3           5.3687 /_   55.0 =     3.0768 +j    4.3996
------------
181965            3           5.3687 /_ -125.0 =    -3.0768 +j   -4.3996

ELEMENT = "Line.175027"
181965            3           2.6842 /_   55.1 =     1.5376 +j    2.2002
------------
181959            3           2.6842 /_ -124.9 =    -1.5376 +j   -2.2002

ELEMENT = "Line.175029"
181963            3            13.46 /_ -125.3 =    -7.7758 +j   -10.987
------------
181957            3            13.46 /_   54.7 =     7.7758 +j    10.987

ELEMENT = "Line.175030"
181963            3            13.46 /_   54.7 =     7.7758 +j    10.987
------------
181964            3            13.46 /_ -125.3 =    -7.7758 +j   -10.987

ELEMENT = "Line.175031"
181964            3           5.3789 /_   54.8 =     3.1028 +j    4.3937
------------
181960            3           5.3789 /_ -125.2 =    -3.1028 +j   -4.3937

ELEMENT = "Line.175032"
181964            3           8.0814 /_   54.7 =     4.6731 +j    6.5932
------------
181961            3           8.0814 /_ -125.3 =    -4.6731 +j   -6.5932

ELEMENT = "Line.175033"
181961            3           4.0406 /_   54.7 =     2.3363 +j    3.2967
------------
181962            3           4.0406 /_ -125.3 =    -2.3363 +j   -3.2967

ELEMENT = "Line.175034"
181969            1           19.866 /_  113.3 =     -7.857 +j    18.246
181969            2           18.754 /_   -6.9 =     18.619 +j   -2.2471
181969            3           17.413 /_ -127.0 =    -10.483 +j   -13.903
------------
181970            1           19.866 /_  -66.7 =      7.857 +j   -18.246
181970            2           18.754 /_  173.1 =    -18.619 +j    2.2471
181970            3           17.413 /_   53.0 =     10.483 +j    13.903

ELEMENT = "Line.175035"
181971            1          0.67704 /_ -118.1 =   -0.31938 +j  -0.59698
181971            2          0.67852 /_  121.8 =   -0.35801 +j   0.57639
181971            3          0.67771 /_    1.7 =    0.67739 +j  0.020592
------------
181972            1          0.67704 /_   61.9 =    0.31938 +j   0.59698
181972            2          0.67852 /_  -58.2 =    0.35801 +j  -0.57639
181972            3          0.67771 /_ -178.3 =   -0.67739 +j -0.020592

ELEMENT = "Line.175036"
181973            1           17.011 /_  -65.1 =     7.1604 +j    -15.43
181973            2           17.037 /_  174.8 =    -16.966 +j    1.5477
181973            3           16.996 /_   54.8 =     9.8058 +j    13.883
------------
181974            1           17.011 /_  114.9 =    -7.1604 +j     15.43
181974            2           17.037 /_   -5.2 =     16.966 +j   -1.5477
181974            3           16.996 /_ -125.2 =    -9.8058 +j   -13.883

ELEMENT = "Line.175037"
181942            1           149.16 /_  155.4 =    -135.65 +j    62.044
181942            2           134.11 /_   41.3 =      100.8 +j    88.446
181942            3           154.88 /_  -86.5 =     9.3927 +j   -154.59
------------
181968            1           149.16 /_  -24.6 =     135.65 +j   -62.044
181968            2           134.11 /_ -138.7 =     -100.8 +j   -88.446
181968            3           154.88 /_   93.5 =    -9.3927 +j    154.59

ELEMENT = "Line.175038"
181968            1           19.866 /_  -66.7 =      7.857 +j   -18.246
181968            2           18.754 /_  173.1 =    -18.619 +j    2.2471
181968            3           17.413 /_   53.0 =     10.483 +j    13.903
------------
181970            1           19.866 /_  113.3 =     -7.857 +j    18.246
181970            2           18.754 /_   -6.9 =     18.619 +j   -2.2471
181970            3           17.413 /_ -127.0 =    -10.483 +j   -13.903

ELEMENT = "Line.175040"
181979            1          0.67704 /_ -118.1 =   -0.31938 +j  -0.59698
181979            2          0.67852 /_  121.8 =   -0.35801 +j   0.57639
181979            3          0.67771 /_    1.7 =    0.67739 +j  0.020592
------------
181971            1          0.67704 /_   61.9 =    0.31938 +j   0.59698
181971            2          0.67852 /_  -58.2 =    0.35801 +j  -0.57639
181971            3          0.67771 /_ -178.3 =   -0.67739 +j -0.020592

ELEMENT = "Line.175041"
181979            1           19.451 /_  -65.1 =     8.1764 +j    -17.65
181979            2           18.337 /_  174.8 =    -18.261 +j    1.6707
181979            3           16.996 /_   54.8 =     9.8058 +j    13.883
------------
181976            1           19.451 /_  114.9 =    -8.1764 +j     17.65
181976            2           18.337 /_   -5.2 =     18.261 +j   -1.6707
181976            3           16.996 /_ -125.2 =    -9.8058 +j   -13.883

ELEMENT = "Line.175042"
181976            1           17.011 /_  -65.1 =     7.1604 +j    -15.43
181976            2           18.337 /_  174.8 =    -18.261 +j    1.6707
181976            3           16.996 /_   54.8 =     9.8058 +j    13.883
------------
181977            1           17.011 /_  114.9 =    -7.1604 +j     15.43
181977            2           18.337 /_   -5.2 =     18.261 +j   -1.6707
181977            3           16.996 /_ -125.2 =    -9.8058 +j   -13.883

ELEMENT = "Line.175043"
181977            1      2.2206E-008 /_   49.1 =  1.4537E-008 +j 1.6786E-008
181977            2           1.3008 /_  174.6 =    -1.2949 +j   0.12294
181977            3      2.2067E-008 /_  169.3 =  -2.1682E-008 +j 4.1036E-009
------------
181978            1      2.1828E-011 /_  -90.0 =          0 +j -2.1828E-011
181978            2           1.3008 /_   -5.4 =     1.2949 +j  -0.12294
181978            3      9.2034E-011 /_ -161.6 =  -8.7311E-011 +j -2.9104E-011

ELEMENT = "Line.175044"
181977            1           17.011 /_  -65.1 =     7.1604 +j    -15.43
181977            2           17.037 /_  174.8 =    -16.966 +j    1.5477
181977            3           16.996 /_   54.8 =     9.8058 +j    13.883
------------
181973            1           17.011 /_  114.9 =    -7.1604 +j     15.43
181973            2           17.037 /_   -5.2 =     16.966 +j   -1.5477
181973            3           16.996 /_ -125.2 =    -9.8058 +j   -13.883

ELEMENT = "Line.175045"
181978            2           1.3008 /_  174.6 =    -1.2949 +j   0.12294
------------
181975            2           1.3008 /_   -5.4 =     1.2949 +j  -0.12294

ELEMENT = "Line.175046"
181975            2      8.6462E-008 /_  -70.4 =  2.8987E-008 +j -8.1458E-008
------------
181982            2       3.638E-012 /_   90.0 =          0 +j 3.638E-012

ELEMENT = "Line.175047"
181974            1           17.011 /_  -65.1 =     7.1604 +j    -15.43
181974            2           17.037 /_  174.8 =    -16.966 +j    1.5477
181974            3           16.996 /_   54.8 =     9.8058 +j    13.883
------------
181980            1           17.011 /_  114.9 =    -7.1604 +j     15.43
181980            2           17.037 /_   -5.2 =     16.966 +j   -1.5477
181980            3           16.996 /_ -125.2 =    -9.8058 +j   -13.883

ELEMENT = "Line.175048"
181972            1          0.67704 /_ -118.1 =   -0.31938 +j  -0.59698
181972            2          0.67852 /_  121.8 =   -0.35801 +j   0.57639
181972            3          0.67771 /_    1.7 =    0.67739 +j  0.020592
------------
181981            1          0.67704 /_   61.9 =    0.31938 +j   0.59698
181981            2          0.67852 /_  -58.2 =    0.35801 +j  -0.57639
181981            3          0.67771 /_ -178.3 =   -0.67739 +j -0.020592

ELEMENT = "Line.175049"
181968            1           164.44 /_  150.8 =    -143.51 +j     80.29
181968            2           147.28 /_   35.8 =     119.42 +j    86.199
181968            3            168.5 /_  -90.4 =    -1.0905 +j    -168.5
------------
165504            1           164.44 /_  -29.2 =     143.51 +j    -80.29
165504            2           147.28 /_ -144.2 =    -119.42 +j   -86.199
165504            3            168.5 /_   89.6 =     1.0905 +j     168.5

ELEMENT = "Line.175051"
165504            1           33.005 /_  -65.5 =     13.708 +j   -30.023
165504            2           29.924 /_  174.4 =     -29.78 +j    2.9292
165504            3           40.331 /_   54.9 =     23.172 +j     33.01
------------
261881            1           33.005 /_  114.5 =    -13.708 +j    30.023
261881            2           29.924 /_   -5.6 =      29.78 +j   -2.9292
261881            3           40.331 /_ -125.1 =    -23.172 +j    -33.01

ELEMENT = "Line.175052"
181987            1            55.92 /_  -63.9 =     24.628 +j   -50.204
181987            2            56.04 /_  175.9 =    -55.899 +j    3.9636
181987            3           55.822 /_   55.9 =     31.271 +j    46.241
------------
181988            1            55.92 /_  116.1 =    -24.628 +j    50.204
181988            2            56.04 /_   -4.1 =     55.899 +j   -3.9636
181988            3           55.822 /_ -124.1 =    -31.271 +j   -46.241

ELEMENT = "Line.175053"
181928            1           56.674 /_  -63.9 =     24.924 +j     -50.9
181928            2           56.822 /_  175.9 =    -56.678 +j    4.0383
181928            3           56.633 /_   55.9 =      31.74 +j    46.904
------------
181985            1           56.674 /_  116.1 =    -24.924 +j      50.9
181985            2           56.822 /_   -4.1 =     56.678 +j   -4.0383
181985            3           56.633 /_ -124.1 =     -31.74 +j   -46.904

ELEMENT = "Line.175054"
181985            1           56.658 /_  -63.9 =     24.931 +j   -50.878
181985            2           56.822 /_  175.9 =    -56.678 +j    4.0383
181985            3           56.633 /_   55.9 =      31.74 +j    46.904
------------
181986            1           56.658 /_  116.1 =    -24.931 +j    50.878
181986            2           56.822 /_   -4.1 =     56.678 +j   -4.0383
181986            3           56.633 /_ -124.1 =     -31.74 +j   -46.904

ELEMENT = "Line.175055"
181986            1            55.92 /_  -63.9 =     24.628 +j   -50.204
181986            2            56.04 /_  175.9 =    -55.899 +j    3.9636
181986            3           55.822 /_   55.9 =     31.271 +j    46.241
------------
181987            1            55.92 /_  116.1 =    -24.628 +j    50.204
181987            2            56.04 /_   -4.1 =     55.899 +j   -3.9636
181987            3           55.822 /_ -124.1 =    -31.271 +j   -46.241

ELEMENT = "Line.175056"
181988            1            55.92 /_  -63.9 =     24.628 +j   -50.204
181988            2            56.04 /_  175.9 =    -55.899 +j    3.9636
181988            3           55.822 /_   55.9 =     31.271 +j    46.241
------------
181989            1            55.92 /_  116.1 =    -24.628 +j    50.204
181989            2            56.04 /_   -4.1 =     55.899 +j   -3.9636
181989            3           55.822 /_ -124.1 =    -31.271 +j   -46.241

ELEMENT = "Line.175057"
181989            1           50.816 /_  -63.7 =     22.498 +j   -45.564
181989            2           50.929 /_  176.1 =     -50.81 +j    3.4803
181989            3           50.721 /_   56.1 =     28.312 +j    42.084
------------
181992            1           50.816 /_  116.3 =    -22.498 +j    45.564
181992            2           50.929 /_   -3.9 =      50.81 +j   -3.4803
181992            3           50.721 /_ -123.9 =    -28.312 +j   -42.084

ELEMENT = "Line.175058"
181992            1           16.977 /_  -64.5 =     7.3044 +j   -15.325
181992            2           17.008 /_  175.3 =    -16.951 +j    1.3838
181992            3           16.953 /_   55.3 =     9.6467 +j    13.941
------------
181990            1           16.977 /_  115.5 =    -7.3044 +j    15.325
181990            2           17.008 /_   -4.7 =     16.951 +j   -1.3838
181990            3           16.953 /_ -124.7 =    -9.6467 +j   -13.941

ELEMENT = "Line.175059"
181992            1           33.842 /_  -63.3 =     15.193 +j    -30.24
181992            2           33.923 /_  176.5 =    -33.858 +j    2.0965
181992            3            33.77 /_   56.4 =     18.665 +j    28.143
------------
181991            1           33.842 /_  116.7 =    -15.193 +j     30.24
181991            2           33.923 /_   -3.5 =     33.858 +j   -2.0965
181991            3            33.77 /_ -123.6 =    -18.665 +j   -28.143

ELEMENT = "Line.175060"
181926            1           48.006 /_   25.9 =     43.191 +j    20.956
181926            2            48.17 /_ -100.0 =    -8.3291 +j   -47.445
181926            3           47.907 /_  141.5 =    -37.509 +j    29.802
------------
181993            1           48.006 /_ -154.1 =    -43.191 +j   -20.956
181993            2            48.17 /_   80.0 =     8.3291 +j    47.445
181993            3           47.907 /_  -38.5 =     37.509 +j   -29.802

ELEMENT = "Line.175061"
181993            1           20.862 /_  -66.0 =     8.4877 +j   -19.057
181993            2           26.165 /_  174.0 =    -26.023 +j    2.7187
181993            3           24.569 /_   54.3 =     14.336 +j    19.953
------------
181994            1           20.862 /_  114.0 =    -8.4877 +j    19.057
181994            2           26.165 /_   -6.0 =     26.023 +j   -2.7187
181994            3           24.569 /_ -125.7 =    -14.336 +j   -19.953

ELEMENT = "Line.175062"
181994            1           20.862 /_  -66.0 =     8.4877 +j   -19.057
181994            2           26.147 /_  174.1 =    -26.007 +j    2.7017
181994            3           24.569 /_   54.3 =     14.336 +j    19.953
------------
181995            1           20.862 /_  114.0 =    -8.4877 +j    19.057
181995            2           26.147 /_   -5.9 =     26.007 +j   -2.7017
181995            3           24.569 /_ -125.7 =    -14.336 +j   -19.953

ELEMENT = "Line.175063"
181995            1           20.845 /_  -66.0 =     8.4948 +j   -19.036
181995            2           26.147 /_  174.1 =    -26.007 +j    2.7017
181995            3           24.569 /_   54.3 =     14.336 +j    19.953
------------
181996            1           20.845 /_  114.0 =    -8.4948 +j    19.036
181996            2           26.147 /_   -5.9 =     26.007 +j   -2.7017
...